version 2
run General-0-20200415-12:37:58-2691
attr configname General
attr datetime 20200415-12:37:58
attr experiment General
attr inifile omnetpp.ini
attr iterationvars ""
attr iterationvarsf ""
attr measurement ""
attr network Network
attr processid 2691
attr repetition 0
attr replication #0
attr resultdir results
attr runnumber 0
attr seedset 0
param Network.source.interArrivalTime exponential(1s)
param Network.server.serviceTime exponential(0.25s)

vector 0 Network.passiveQueue queueLength:vector ETV
attr interpolationmode sample-hold
attr title "queue length, vector"
vector 1 Network.passiveQueue1 queueLength:vector ETV
attr interpolationmode sample-hold
attr title "queue length, vector"
vector 2 Network.passiveQueue2 queueLength:vector ETV
attr interpolationmode sample-hold
attr title "queue length, vector"
vector 3 Network.passiveQueue3 queueLength:vector ETV
attr interpolationmode sample-hold
attr title "queue length, vector"
vector 4 Network.sink lifeTime:vector ETV
attr interpolationmode none
attr title "lifetime of arrived jobs, vector"
attr unit s
0	0	0	0
0	127	24.729712633012	1
0	128	24.857331897138	0
0	223	36.178032619279	1
0	224	36.51003846142	0
0	271	41.513004316451	1
0	272	41.743115221559	0
0	367	61.266896180364	1
0	371	61.71932734245	0
0	385	62.870511142601	1
0	386	62.888942964524	0
1	0	0	0
1	292	47.596075130899	1
1	293	47.846893429205	0
2	0	0	0
2	175	30.85165068524	1
2	176	31.622142880579	0
2	319	49.258133261099	1
2	320	49.492230088994	0
2	370	61.408226893925	1
2	374	61.804740884207	0
2	403	65.599391121046	1
2	404	65.651820372852	0
3	0	0	0
3	79	14.160861649911	1
3	80	14.519853850224	0
3	109	22.56657895066	1
3	110	23.135454389657	0
3	289	47.538748204475	1
3	296	47.851940961242	0
3	307	48.778900406407	1
3	310	48.906957171718	2
3	311	49.168914548251	1
3	314	49.200511707357	0
4	6	1.260775557585	0.464901053019
4	12	1.891235178045	0.196800284995
4	18	2.861909631119	0.244251606598
4	24	4.640501877945	0.143879799221
4	30	5.549377546661	0.014596167273
4	36	6.008841044763	0.120900526237
4	42	9.620905598535	0.418052800081
4	48	10.06215735993	0.209858213225
4	54	11.057065576087	0.452092316069
4	60	11.126635525565	0.022790256531
4	66	11.292342658813	0.114812034314
4	72	12.598589197466	0.376446064659
4	81	14.519853850224	0.510223053978
4	84	14.921163739489	0.760302089578
4	90	18.18982462435	0.183741105297
4	96	19.651554196306	0.03146860236
4	102	21.354701866697	0.218080298761
4	111	23.135454389657	0.723605119497
4	114	23.163440929815	0.596861979155
4	120	24.064763718792	0.076820088038
4	129	24.857331897138	0.333822546156
4	132	25.067415573541	0.337702940529
4	138	25.436737758864	0.097942702669
4	144	25.720822252781	0.236749169294
4	150	26.56759328488	0.122139262327
4	156	26.983180693303	0.286284738675
4	162	29.81218462178	0.237373645874
4	168	30.471584002588	0.299026949864
4	177	31.622142880579	0.875053421114
4	180	31.899792242001	1.048141556761
4	186	32.061414159946	0.110851007155
4	192	32.23272970988	0.094740491071
4	198	32.374296046563	0.098278139326
4	204	33.35641054471	0.144331077702
4	210	34.854743921049	0.798236660513
4	216	35.120953645397	0.058575379694
4	225	36.51003846142	1.340025087561
4	228	36.583058594737	0.405025975458
4	234	37.397720584774	0.160945250401
4	240	37.815121875493	0.043281864037
4	246	38.332909095318	0.280792075383
4	252	38.50179631717	0.037178067313
4	258	40.27948791997	0.746797472963
4	264	41.469408694709	0.430082914429
4	273	41.743115221559	0.243775483539
4	276	41.768373915386	0.255369598935
4	282	43.859153560933	0.526330325198
4	294	47.846893429205	0.940481821126
4	297	47.851940961242	0.255865830343
4	300	47.861935036007	0.323186831532
4	312	49.168914548251	0.972892530711
4	315	49.200511707357	0.42161130095
4	321	49.492230088994	0.585272917276
4	324	49.625951182933	0.367817921834
4	330	49.701933071981	0.06109886202
4	336	52.353770376039	0.209024382993
4	342	53.501747504415	0.177811984304
4	348	55.351838619723	0.024662577105
4	354	56.08962761365	0.021692620585
4	360	58.704129554549	0.095890053525
4	372	61.71932734245	0.46183191275
4	375	61.804740884207	0.537844703843
4	378	61.881620315148	0.473393421223
4	387	62.888942964524	0.22078226049
4	390	62.93400602752	0.063494884919
4	396	63.676485177525	0.001176635123

